&HEAD CHID='ASET_animation', TITLE='ASET_animation'/
&TIME T_END=120./
&DUMP DT_SLCF=10./
&MESH IJK=150,50,15, XB=0,30,0,10,0,3 /
&REAC ID='POLYURETHANE',
      FYI='NFPA Babrauskas',
      FUEL='REAC_FUEL',
      C=6.3,
      H=7.1,
      O=2.1,
      N=1.0,
      SOOT_YIELD=0.129/
&VENT XB=1,2,1,2,0,0, SURF_ID='FIRE' /
&SURF ID='FIRE' COLOR='RED' HRRPUA=60 /

&VENT XB=30,30,8,9,0,2 SURF_ID='OPEN'/
&SLCF PBZ=2., QUANTITY='EXTINCTION COEFFICIENT'/
&SLCF PBZ=2., QUANTITY='TEMPERATURE'/
&TAIL/
